<configuration>
   <input>
       <net-file value="map.net.xml"/>
       <route-files value="map.rou.xml"/>
	   <additional-files value="map.poly.xml"/>
   </input>
   <time>
       <begin value="0"/>
       <end value="5000"/>
    </time>
</configuration>