<?xml version="1.0" encoding="UTF-8"?>

<!-- generated on 2022-09-24 12:17:47 by Eclipse SUMO polyconvert Version 1.14.1
<configuration xmlns:xsi="http://www.w3.org/2001/XMLSchema-instance" xsi:noNamespaceSchemaLocation="http://sumo.dlr.de/xsd/polyconvertConfiguration.xsd">

    <input>
        <net-file value="map.net.xml"/>
        <osm-files value="map.osm"/>
        <type-file value="typemap.xml"/>
    </input>

    <output>
        <output-file value="map.poly.xml"/>
    </output>

</configuration>
-->

<additional xmlns:xsi="http://www.w3.org/2001/XMLSchema-instance" xsi:noNamespaceSchemaLocation="http://sumo.dlr.de/xsd/additional_file.xsd">
    <location netOffset="-735407.28,-2541632.45" convBoundary="-1892.71,-762.14,2717.32,1702.48" origBoundary="113.277563,22.959268,113.322693,22.981508" projParameter="+proj=utm +zone=49 +ellps=WGS84 +datum=WGS84 +units=m +no_defs"/>

    <poly id="202236399" type="forest" color="140,196,107" fill="0" layer="-4.00" shape="1195.632203,270.187499 1024.990307,224.219485 1036.430227,161.470865 1020.431149,93.914882 982.476921,57.744073 952.995834,42.512716 915.631838,38.635386 879.867468,38.073712 836.054446,24.800092 799.862381,-18.444113 764.128519,-66.057190 704.655305,-69.239539 479.741680,-207.719075 292.711818,-176.571040"/>
    <poly id="238574420" type="water" color="181,209,209" fill="1" layer="-4.00" shape="348.055283,30.629115 335.950228,49.583772 334.492326,58.822881 338.271042,84.795605 340.102724,102.772104 339.253281,113.117556 329.136157,133.532538 652.264687,221.590847 657.226267,208.750679 658.946878,203.703533 653.116747,203.900111 642.895513,205.423740 642.586428,204.853867 644.804876,194.884413 652.042528,187.364595 650.995121,179.581844 653.855230,173.832445 658.125862,169.722700 662.250657,167.715661 670.281407,167.841666 679.782995,169.032173 690.287624,171.025029 700.472761,184.224743 705.125011,202.212361 706.632192,215.342374 709.597679,225.758781 716.935663,228.189436 733.472024,228.249549 739.041924,220.448779 744.685017,210.599559 751.159564,209.216608 761.681885,214.001684 767.063672,221.453647 772.447529,232.040980 776.733613,239.364958 785.681651,242.485660 786.553614,242.488270 792.766833,250.562638 800.980924,254.037431 814.914607,251.287043 824.244793,244.442734 833.515652,245.297353 839.805588,243.257886 844.331476,235.961466 844.565881,226.913661 847.234141,221.626595 852.016420,217.602487 856.259138,210.700464 860.168739,209.332676 866.080905,211.752095 868.262119,221.148045 866.404377,234.269562 863.690700,243.754827 861.466206,252.793538 863.874948,264.032164 867.305730,268.982929 874.351125,269.791547 882.324488,267.689905 890.183716,259.138534 905.325178,246.768525 909.680536,241.840335 911.808255,231.127188 918.884622,217.555855 930.365015,201.837915 942.309668,191.832927 950.029961,190.824154 959.087937,189.559427 965.625923,191.323980 970.191508,195.871599 977.680844,201.074497 982.153277,203.715079 985.666421,199.504885 987.583293,191.115008 985.793791,182.256977 985.667256,181.169253 977.524142,163.381486 969.495198,157.915297 956.029596,156.329965 934.299918,155.755960 917.853850,155.818922 903.891392,156.474856 895.766586,155.804382 889.598003,152.073613 883.754538,143.971775 882.210340,126.021814 884.219323,114.376171 884.882665,98.920401 881.578257,90.492837 875.814004,85.184139 868.419129,81.799730 858.045182,78.667677 848.972392,78.259320 841.502904,78.972957 831.729186,80.736153 824.460657,81.718847 818.675653,84.918463 815.195905,90.924003 813.174806,102.691328 813.414297,114.228249 814.520386,122.189204 821.464463,130.108870 832.300401,139.097828 836.125834,144.398225 835.398441,152.828946 832.910082,160.378941 829.881275,166.413716 826.534175,172.465651 826.232185,177.978215 827.657080,185.235127 830.830102,188.963152 835.768422,194.602313 839.540131,198.749661 839.357400,202.546864 837.447928,209.164238 833.068958,212.330527 831.656508,216.041948 830.455622,219.346771 829.133385,224.499869 826.137646,226.469196 822.786766,227.535555 818.889873,227.441133 814.367169,227.347965 810.275743,229.189303 805.911207,233.397245 801.507746,235.510659 796.800263,234.118361 795.418277,231.315854 788.600096,223.874566 783.746243,221.349925 779.538538,218.835429 772.706968,208.325077 771.698043,200.709098 767.877294,197.070630 762.895132,196.837319 757.971725,197.435852 750.255114,194.943840 746.431407,188.879047 746.143886,184.321098 747.662184,179.093520 752.668351,173.222716 758.391261,162.211465 759.474278,155.957795 760.458038,147.531099 760.610857,138.448782 755.985411,122.677348 751.268855,115.324467 743.825648,108.482738 732.557305,100.240432 726.984409,97.771003 720.575352,96.939212 713.901023,98.629255 707.625307,101.067843 702.291452,105.592971 698.087895,111.310203 692.565957,116.707616 688.552926,120.090188 683.290343,120.727741 670.363419,117.500364 660.791018,111.013035 656.450065,101.295194 655.309428,85.722505 658.411781,61.918279 658.149383,48.564072 654.695876,43.092303 650.388651,38.415901 645.022940,36.470465 636.351519,35.326249 627.766514,36.521044 617.095641,39.887827 603.637665,47.620305 595.601334,51.770713 589.462064,52.051104 582.904351,50.884676 572.524248,46.833182 563.443876,38.403753 561.491593,32.058160 560.564046,22.515756 558.147934,14.345950 552.216580,2.675480 557.374418,-7.635648 560.173308,-14.715491 565.872352,-22.248403 571.523293,-26.059556 575.847009,-27.011007 585.323354,-24.857105 596.260478,-21.649946 596.606420,-21.467258 605.035733,-18.620714 612.671961,-18.844384 619.286691,-21.310934 632.534544,-31.340035 635.885395,-40.903965 635.096969,-48.848832 628.106055,-64.258468 621.370396,-71.742677 619.668760,-81.640675 621.738365,-95.855687 618.488151,-106.442709 613.219490,-115.233370 606.144261,-125.271042 598.375845,-126.434300 594.084025,-130.789148 585.350572,-135.834071 576.196816,-136.974727 565.744347,-134.457548 557.889484,-126.182915 556.455061,-118.450176 557.054429,-108.259266 559.738941,-102.810665 557.999235,-96.545129 551.798478,-88.421818 540.548882,-81.518801 529.893155,-73.232680 516.677046,-59.336459 507.237988,-44.239883 504.124685,-34.771920 503.226628,-24.604491 507.708034,-13.366698 511.889685,-5.257854 513.826508,0.112544 508.496111,12.271154 505.850702,27.230509 506.226719,27.457983 506.659977,41.701163 508.387181,49.317291 504.898752,59.156055 495.241170,69.219384 484.838276,74.473869 474.939436,75.060968 458.469472,72.719944 453.709728,69.421373 438.103770,60.391184 423.566409,44.708267 413.405706,35.165195 400.792615,31.544142 388.334045,27.227551 377.285388,26.555862 360.990297,26.145419 351.518253,28.301413 348.055283,30.629115"/>
    <poly id="238574425" type="water" color="181,209,209" fill="1" layer="-4.00" shape="1031.468856,-26.805075 1036.514257,-11.004778 1044.085092,18.395832 1067.861312,40.207235 1088.122962,54.562708 1086.555437,70.746567 1091.964868,81.655721 1102.448549,88.899955 1112.060926,96.750921 1110.540765,108.614736 1103.100278,117.272304 1109.322374,128.039137 1126.851855,141.288152 1144.216279,156.550964 1158.029549,170.605754 1165.772194,173.397522 1172.635724,164.897096 1172.952932,148.638180 1171.894430,148.754484 1172.156350,138.621361 1161.793853,126.936317 1156.546238,119.441991 1153.783627,105.926551 1156.182150,96.923838 1161.962203,93.391898 1169.491798,88.857126 1172.494114,84.517068 1170.587237,79.867162 1166.283487,68.454647 1167.064548,55.969871 1168.110206,42.968544 1168.565505,23.798038 1166.480451,12.209910 1166.707632,6.895585 1158.344733,7.007839 1148.169408,6.249604 1134.782961,10.714474 1116.160208,12.183281 1102.962932,8.530285 1095.445764,1.177579 1077.679931,-16.628538 1074.964812,-28.603231 1072.292531,-36.123516 1057.960183,-38.708569 1039.910012,-37.119875 1031.468856,-26.805075"/>
    <poly id="517841860" type="residential" color="235,235,227" fill="1" layer="-3.00" shape="34.683741,325.062292 107.578591,191.617079 884.212263,396.357051 903.330025,439.100739 763.666833,779.578814 691.054591,895.421280 648.363671,895.781561 34.683741,325.062292"/>
    <poly id="539843907" type="water" color="181,209,209" fill="0" layer="-4.00" shape="1698.718343,550.096929 1698.402408,551.266323 1695.154906,555.535947 1689.130032,560.282510 1684.054883,561.399053 1668.994359,557.538865 1504.103107,518.635314 340.412137,202.187831 -7.272717,107.913664 -377.529728,12.265046 -929.866580,-130.117621 -1045.084881,-117.620922 -1141.948015,-96.661477 -1193.281578,-97.460575 -1352.287221,-174.472551 -1636.548098,-378.851334 -1759.539587,-471.008627 -1776.782284,-480.449490 -1791.233040,-477.427747 -1862.302358,-408.402505 -1892.713633,-383.725732"/>
    <poly id="659463900" type="tourism" color="207,245,201" fill="0" layer="-2.00" shape="1195.632203,270.187499 1192.197014,363.373977"/>
    <poly id="659463906" type="tourism" color="207,245,201" fill="0" layer="-2.00" shape="1304.843949,-115.581317 1292.096931,-126.993738 1265.129287,-179.411452 1260.779224,-200.275066 1258.028735,-217.823072 1254.387350,-231.562848 1242.698988,-240.499035 1233.067949,-240.650488 1218.937862,-234.579836 1193.746460,-225.126745 1176.870347,-236.892022 1160.685451,-257.387699 1155.794233,-279.079613 1152.113972,-307.322302 1155.352903,-338.458619 1163.277528,-387.037090 1171.668491,-430.689177 1191.686017,-479.077540 1210.045314,-526.395141 1209.697793,-539.529156 1207.215715,-556.541123 1203.073384,-573.014164 1197.995501,-600.458985 1198.425581,-627.817217 1204.354947,-654.535051 1220.130787,-677.818720 1249.236494,-709.102296 1261.062792,-725.878215 1257.975111,-739.609264 1217.055117,-762.144603 1207.330860,-738.765795 1187.663876,-713.349644 1165.879430,-692.896885 1150.812476,-679.462282 1135.088274,-659.457106 1125.355667,-635.535525 1122.729009,-608.754693 1122.428048,-589.603938 1119.223659,-560.660712 1113.364774,-537.763988 1092.420206,-500.878969 1062.291051,-457.302541 1056.261163,-441.798142 1051.285128,-405.216126 1050.660301,-242.697934 1051.768238,-225.718670 1053.183210,-210.651237 1064.151723,-190.503551 1196.409775,-61.747899 1201.986372,-49.074522 1205.657871,-37.250941 1206.116989,-14.254894 1195.632203,270.187499"/>
    <poly id="659467370" type="industrial" color="209,209,204" fill="0" layer="-3.00" shape="1192.197014,363.373977 1695.228276,505.969666 1852.110403,-3.728273"/>
    <poly id="659467371" type="tourism" color="207,245,201" fill="0" layer="-2.00" shape="1192.197014,363.373977 293.951313,125.469828 292.711818,-176.571040"/>
    <poly id="659468372" type="residential" color="235,235,227" fill="1" layer="-3.00" shape="137.004949,1307.012164 126.025684,1265.948020 383.014082,1098.340743 461.881082,1071.425907 565.086714,1034.346169 633.560632,993.187795 867.553680,1190.388845 864.978958,1241.965196 507.142716,1306.709718 137.004949,1307.012164"/>
    <poly id="659468373" type="residential" color="235,235,227" fill="1" layer="-3.00" shape="109.628230,1156.220730 121.276515,1186.017014 144.777616,1208.963864 374.001630,1071.222314 559.621990,1006.696082 604.881512,979.254689 613.449270,958.859894 535.587809,884.340167 109.628230,1156.220730"/>
    <poly id="659468374" type="amenity" color="237,199,199" fill="1" layer="-1.00" shape="592.569501,748.586748 470.467291,636.414243 536.038677,554.749593 683.807041,647.383346 592.569501,748.586748"/>
    <poly id="659468375" type="residential" color="235,235,227" fill="1" layer="-3.00" shape="792.527936,1048.463499 692.133383,943.675863 784.015025,801.435760 934.272398,848.366525 901.861861,921.753846 845.028949,1010.002186 792.527936,1048.463499"/>
    <poly id="659468376" type="residential" color="235,235,227" fill="1" layer="-3.00" shape="793.680618,786.930109 944.023608,415.122604 1021.393280,483.786941 951.423656,619.922305 969.880285,646.602359 976.431865,755.201427 969.751568,804.940626 951.571641,835.742463 793.680618,786.930109"/>
    <poly id="659468377" type="amenity" color="237,199,199" fill="1" layer="-1.00" shape="988.188987,1133.056519 867.968376,1014.461745 909.841493,939.472580 1024.847802,939.518428 988.188987,1133.056519"/>
    <poly id="659468378" type="amenity" color="237,199,199" fill="1" layer="-1.00" shape="911.112980,933.631796 974.225597,933.449179 973.326736,877.719021 991.045876,876.235946 994.339542,778.936989 974.369221,778.745010 972.898132,850.812600 948.118191,843.343747 911.112980,933.631796"/>
    <poly id="659468380" type="amenity" color="237,199,199" fill="1" layer="-1.00" shape="1103.836997,698.164383 1162.670044,715.120789 1173.024644,699.883885 1206.570394,697.265094 1223.132369,668.930814 1287.159131,657.673723 1201.949695,488.830385 1103.836997,698.164383"/>
    <poly id="659468381" type="amenity" color="237,199,199" fill="1" layer="-1.00" shape="984.345201,769.307418 978.487585,654.415324 1049.662176,667.443834 1038.907503,712.055899 1079.396566,726.507851 1067.383092,759.179159 984.345201,769.307418"/>
    <poly id="659468382" type="commercial" color="209,209,204" fill="1" layer="-3.00" shape="110.900148,1141.815938 523.570988,878.069345 302.196763,667.135155 -229.552871,160.474490 40.265947,896.498231 110.900148,1141.815938"/>
    <poi id="2122154261" type="parking" color="184,184,179" layer="4.00" x="1083.20" y="303.64"/>
    <poi id="4083142687" type="unknown" color="51,128,255" layer="4.00" x="310.45" y="131.89"/>
    <poi id="5485725424" type="amenity" color="237,199,199" layer="4.00" x="711.47" y="868.35"/>
    <poi id="8256481690" type="shop" color="237,199,255" layer="4.00" x="503.18" y="867.97"/>
    <poi id="8256481691" type="amenity" color="237,199,199" layer="4.00" x="350.82" y="730.84"/>
    <poi id="8256481692" type="amenity" color="237,199,199" layer="4.00" x="415.45" y="786.63"/>
</additional>
