<?xml version="1.0" encoding="UTF-8"?>

<!-- generated on 2022-09-24 23:16:26 by Eclipse SUMO netedit Version 1.14.1
<configuration xmlns:xsi="http://www.w3.org/2001/XMLSchema-instance" xsi:noNamespaceSchemaLocation="http://sumo.dlr.de/xsd/netconvertConfiguration.xsd">

    <input>
        <sumo-net-file value="E:\Sumo%20仿真\zhongcun\map.net.xml"/>
    </input>

    <output>
        <output-file value="E:\Sumo%20仿真\zhongcun\map.net.xml"/>
    </output>

    <processing>
        <geometry.min-radius.fix.railways value="false"/>
        <geometry.max-grade.fix value="false"/>
        <offset.disable-normalization value="true"/>
        <lefthand value="false"/>
    </processing>

    <junctions>
        <no-turnarounds value="true"/>
        <junctions.corner-detail value="5"/>
        <junctions.limit-turn-speed value="5.5"/>
        <rectangular-lane-cut value="false"/>
    </junctions>

    <pedestrian>
        <walkingareas value="false"/>
    </pedestrian>

</configuration>
-->

<net version="1.9" junctionCornerDetail="5" limitTurnSpeed="5.50" xmlns:xsi="http://www.w3.org/2001/XMLSchema-instance" xsi:noNamespaceSchemaLocation="http://sumo.dlr.de/xsd/net_file.xsd">

    <location netOffset="-735407.28,-2541632.45" convBoundary="0.00,0.00,2717.32,1702.48" origBoundary="113.277563,22.962232,113.322693,22.981508" projParameter="+proj=utm +zone=49 +ellps=WGS84 +datum=WGS84 +units=m +no_defs"/>

    <type id="highway.bridleway" priority="1" numLanes="1" speed="2.78" allow="pedestrian" oneway="1" width="2.00"/>
    <type id="highway.bus_guideway" priority="1" numLanes="1" speed="27.78" allow="bus" oneway="1"/>
    <type id="highway.cycleway" priority="1" numLanes="1" speed="5.56" allow="bicycle" oneway="0" width="1.00"/>
    <type id="highway.footway" priority="1" numLanes="1" speed="2.78" allow="pedestrian" oneway="1" width="2.00"/>
    <type id="highway.ford" priority="1" numLanes="1" speed="2.78" allow="army" oneway="0"/>
    <type id="highway.living_street" priority="2" numLanes="1" speed="2.78" disallow="tram rail_urban rail rail_electric rail_fast ship" oneway="0"/>
    <type id="highway.motorway" priority="14" numLanes="2" speed="39.44" allow="private emergency authority army vip passenger hov taxi bus coach delivery truck trailer motorcycle evehicle custom1 custom2" oneway="1"/>
    <type id="highway.motorway_link" priority="9" numLanes="1" speed="22.22" allow="private emergency authority army vip passenger hov taxi bus coach delivery truck trailer motorcycle evehicle custom1 custom2" oneway="1"/>
    <type id="highway.path" priority="1" numLanes="1" speed="5.56" allow="pedestrian bicycle" oneway="0" width="2.00"/>
    <type id="highway.pedestrian" priority="1" numLanes="1" speed="2.78" allow="pedestrian" oneway="1" width="2.00"/>
    <type id="highway.primary" priority="12" numLanes="2" speed="27.78" disallow="tram rail_urban rail rail_electric rail_fast ship" oneway="0"/>
    <type id="highway.primary_link" priority="7" numLanes="1" speed="22.22" disallow="tram rail_urban rail rail_electric rail_fast ship" oneway="0"/>
    <type id="highway.raceway" priority="15" numLanes="2" speed="83.33" allow="vip" oneway="0"/>
    <type id="highway.residential" priority="3" numLanes="1" speed="13.89" disallow="tram rail_urban rail rail_electric rail_fast ship" oneway="0"/>
    <type id="highway.secondary" priority="11" numLanes="1" speed="27.78" disallow="tram rail_urban rail rail_electric rail_fast ship" oneway="0"/>
    <type id="highway.secondary_link" priority="6" numLanes="1" speed="22.22" disallow="tram rail_urban rail rail_electric rail_fast ship" oneway="0"/>
    <type id="highway.service" priority="1" numLanes="1" speed="5.56" allow="pedestrian delivery bicycle" oneway="0"/>
    <type id="highway.stairs" priority="1" numLanes="1" speed="1.39" allow="pedestrian" oneway="1" width="2.00"/>
    <type id="highway.step" priority="1" numLanes="1" speed="1.39" allow="pedestrian" oneway="1" width="2.00"/>
    <type id="highway.steps" priority="1" numLanes="1" speed="1.39" allow="pedestrian" oneway="1" width="2.00"/>
    <type id="highway.tertiary" priority="10" numLanes="1" speed="22.22" disallow="tram rail_urban rail rail_electric rail_fast ship" oneway="0"/>
    <type id="highway.tertiary_link" priority="5" numLanes="1" speed="22.22" disallow="tram rail_urban rail rail_electric rail_fast ship" oneway="0"/>
    <type id="highway.track" priority="1" numLanes="1" speed="5.56" allow="pedestrian motorcycle moped bicycle" oneway="0"/>
    <type id="highway.trunk" priority="13" numLanes="2" speed="27.78" disallow="pedestrian bicycle tram rail_urban rail rail_electric rail_fast ship" oneway="0"/>
    <type id="highway.trunk_link" priority="8" numLanes="1" speed="22.22" disallow="pedestrian bicycle tram rail_urban rail rail_electric rail_fast ship" oneway="0"/>
    <type id="highway.unclassified" priority="4" numLanes="1" speed="13.89" disallow="tram rail_urban rail rail_electric rail_fast ship" oneway="0"/>
    <type id="highway.unsurfaced" priority="1" numLanes="1" speed="8.33" disallow="tram rail_urban rail rail_electric rail_fast ship" oneway="0"/>
    <type id="railway.highspeed" priority="21" numLanes="1" speed="69.44" allow="rail_fast" oneway="1"/>
    <type id="railway.light_rail" priority="19" numLanes="1" speed="27.78" allow="rail_urban" oneway="1"/>
    <type id="railway.preserved" priority="16" numLanes="1" speed="27.78" allow="rail" oneway="1"/>
    <type id="railway.rail" priority="20" numLanes="1" speed="44.44" allow="rail" oneway="1"/>
    <type id="railway.subway" priority="18" numLanes="1" speed="27.78" allow="rail_urban" oneway="1"/>
    <type id="railway.tram" priority="17" numLanes="1" speed="13.89" allow="tram" oneway="1"/>

    <edge id=":1183425947_0" function="internal">
        <lane id=":1183425947_0_0" index="0" disallow="tram rail_urban rail rail_electric rail_fast ship" speed="6.51" length="8.79" shape="674.55,948.19 673.23,950.19 672.85,952.15 673.40,954.07 674.88,955.95"/>
    </edge>
    <edge id=":1183425947_1" function="internal">
        <lane id=":1183425947_1_0" index="0" disallow="tram rail_urban rail rail_electric rail_fast ship" speed="22.22" length="13.23" shape="672.15,946.07 669.60,949.33 667.97,951.95 666.49,954.30 664.36,956.73"/>
    </edge>
    <edge id=":1183425947_2" function="internal">
        <lane id=":1183425947_2_0" index="0" disallow="tram rail_urban rail rail_electric rail_fast ship" speed="27.78" length="11.68" shape="664.40,950.41 672.67,958.26"/>
        <lane id=":1183425947_2_1" index="1" disallow="tram rail_urban rail rail_electric rail_fast ship" speed="27.78" length="11.68" shape="664.40,950.41 666.28,952.87 667.19,955.25 668.22,957.75 670.46,960.58"/>
    </edge>
    <edge id=":1183425947_4" function="internal">
        <lane id=":1183425947_4_0" index="0" disallow="tram rail_urban rail rail_electric rail_fast ship" speed="5.82" length="7.29" shape="664.40,950.41 665.63,951.97 666.04,953.55 665.62,955.13 664.36,956.73"/>
    </edge>
    <edge id=":1183426175_0" function="internal">
        <lane id=":1183426175_0_0" index="0" disallow="tram rail_urban rail rail_electric rail_fast ship" speed="7.21" length="11.60" shape="795.27,1063.08 792.87,1066.05 791.76,1068.72 791.92,1071.09 793.37,1073.14"/>
    </edge>
    <edge id=":1183426175_1" function="internal">
        <lane id=":1183426175_1_0" index="0" disallow="tram rail_urban rail rail_electric rail_fast ship" speed="13.89" length="14.83" shape="795.27,1063.08 784.94,1073.72"/>
    </edge>
    <edge id=":1183426175_2" function="internal">
        <lane id=":1183426175_2_0" index="0" disallow="tram rail_urban rail rail_electric rail_fast ship" speed="3.65" length="4.67" shape="795.27,1063.08 793.86,1063.38 793.00,1063.11 792.71,1062.27 792.97,1060.85"/>
    </edge>
    <edge id=":1183426175_3" function="internal">
        <lane id=":1183426175_3_0" index="0" disallow="tram rail_urban rail rail_electric rail_fast ship" speed="6.55" length="9.10" shape="784.98,1060.95 787.02,1062.41 789.03,1062.88 791.01,1062.36 792.97,1060.85"/>
    </edge>
    <edge id=":1183426175_4" function="internal">
        <lane id=":1183426175_4_0" index="0" disallow="tram rail_urban rail rail_electric rail_fast ship" speed="27.78" length="14.49" shape="782.77,1063.26 793.37,1073.14"/>
    </edge>
    <edge id=":1183426175_5" function="internal">
        <lane id=":1183426175_5_0" index="0" disallow="tram rail_urban rail rail_electric rail_fast ship" speed="6.76" length="9.90" shape="780.56,1065.58 783.23,1068.37 784.85,1070.66 785.42,1072.44 784.94,1073.72"/>
    </edge>
    <edge id=":1183426175_6" function="internal">
        <lane id=":1183426175_6_0" index="0" disallow="tram rail_urban rail rail_electric rail_fast ship" speed="13.89" length="14.83" shape="782.65,1071.50 792.97,1060.85"/>
    </edge>
    <edge id=":1183426175_7" function="internal">
        <lane id=":1183426175_7_0" index="0" disallow="tram rail_urban rail rail_electric rail_fast ship" speed="7.54" length="12.17" shape="782.65,1071.50 784.88,1069.98 787.42,1069.75 790.25,1070.80 793.37,1073.14"/>
    </edge>
    <edge id=":1183426175_8" function="internal">
        <lane id=":1183426175_8_0" index="0" disallow="tram rail_urban rail rail_electric rail_fast ship" speed="3.65" length="4.67" shape="782.65,1071.50 784.06,1071.19 784.91,1071.46 785.20,1072.30 784.94,1073.72"/>
    </edge>
    <edge id=":1183426186_0" function="internal">
        <lane id=":1183426186_0_0" index="0" disallow="tram rail_urban rail rail_electric rail_fast ship" speed="7.40" length="11.70" shape="784.78,1081.88 782.60,1080.64 780.17,1080.64 777.51,1081.89 774.61,1084.39"/>
    </edge>
    <edge id=":1183426186_1" function="internal">
        <lane id=":1183426186_1_0" index="0" disallow="tram rail_urban rail rail_electric rail_fast ship" speed="27.78" length="14.38" shape="784.78,1081.88 774.40,1071.93"/>
    </edge>
    <edge id=":1183426186_2" function="internal">
        <lane id=":1183426186_2_0" index="0" disallow="tram rail_urban rail rail_electric rail_fast ship" speed="7.30" length="11.93" shape="784.78,1081.88 782.20,1079.04 780.96,1076.38 781.06,1073.91 782.51,1071.64"/>
    </edge>
    <edge id=":1183426186_3" function="internal">
        <lane id=":1183426186_3_0" index="0" disallow="tram rail_urban rail rail_electric rail_fast ship" speed="13.89" length="14.65" shape="784.80,1073.87 774.61,1084.39"/>
    </edge>
    <edge id=":1183426186_4" function="internal">
        <lane id=":1183426186_4_0" index="0" disallow="tram rail_urban rail rail_electric rail_fast ship" speed="6.70" length="9.80" shape="784.80,1073.87 783.55,1074.37 781.78,1073.84 779.49,1072.28 776.68,1069.68"/>
    </edge>
    <edge id=":1183426186_5" function="internal">
        <lane id=":1183426186_5_0" index="0" disallow="tram rail_urban rail rail_electric rail_fast ship" speed="3.65" length="4.67" shape="784.80,1073.87 783.39,1074.17 782.54,1073.90 782.25,1073.06 782.51,1071.64"/>
    </edge>
    <edge id=":1183426186_6" function="internal">
        <lane id=":1183426186_6_0" index="0" disallow="tram rail_urban rail rail_electric rail_fast ship" speed="6.57" length="9.06" shape="772.31,1082.16 773.73,1080.19 774.17,1078.20 773.63,1076.20 772.12,1074.18"/>
    </edge>
    <edge id=":1183426186_7" function="internal">
        <lane id=":1183426186_7_0" index="0" disallow="tram rail_urban rail rail_electric rail_fast ship" speed="13.89" length="14.65" shape="772.31,1082.16 782.51,1071.64"/>
    </edge>
    <edge id=":1183426186_8" function="internal">
        <lane id=":1183426186_8_0" index="0" disallow="tram rail_urban rail rail_electric rail_fast ship" speed="3.65" length="4.67" shape="772.31,1082.16 773.72,1081.86 774.57,1082.13 774.87,1082.97 774.61,1084.39"/>
    </edge>
    <edge id=":1183426228_0" function="internal">
        <lane id=":1183426228_0_0" index="0" disallow="tram rail_urban rail rail_electric rail_fast ship" speed="5.55" length="9.41" shape="1205.87,488.88 1204.21,486.49 1202.59,485.71 1201.00,486.55 1199.44,489.01"/>
    </edge>
    <edge id=":1183426228_1" function="internal">
        <lane id=":1183426228_1_0" index="0" disallow="tram rail_urban rail rail_electric rail_fast ship" speed="13.89" length="19.42" shape="1205.87,488.88 1203.95,484.87 1201.88,480.02 1200.02,475.09 1198.68,470.86"/>
    </edge>
    <edge id=":1183426228_2" function="internal">
        <lane id=":1183426228_2_0" index="0" disallow="tram rail_urban rail rail_electric rail_fast ship" speed="9.59" length="5.97" shape="1205.87,488.88 1203.98,483.92 1203.95,483.25"/>
    </edge>
    <edge id=":1183426228_3" function="internal">
        <lane id=":1183426228_3_0" index="0" disallow="tram rail_urban rail rail_electric rail_fast ship" speed="3.65" length="1.44" shape="1205.87,488.88 1206.02,487.45"/>
    </edge>
    <edge id=":1183426228_16" function="internal">
        <lane id=":1183426228_16_0" index="0" disallow="tram rail_urban rail rail_electric rail_fast ship" speed="9.59" length="12.43" shape="1203.95,483.25 1203.79,479.53 1205.30,475.69 1208.51,472.42"/>
    </edge>
    <edge id=":1183426228_17" function="internal">
        <lane id=":1183426228_17_0" index="0" disallow="tram rail_urban rail rail_electric rail_fast ship" speed="3.65" length="3.23" shape="1206.02,487.45 1206.54,486.72 1207.44,486.70 1208.70,487.40"/>
    </edge>
    <edge id=":1183426228_4" function="internal">
        <lane id=":1183426228_4_0" index="0" disallow="tram rail_urban rail rail_electric rail_fast ship" speed="8.38" length="13.81" shape="1210.41,475.00 1208.09,477.41 1207.03,480.28 1207.23,483.61 1208.70,487.40"/>
    </edge>
    <edge id=":1183426228_5" function="internal">
        <lane id=":1183426228_5_0" index="0" disallow="tram rail_urban rail rail_electric rail_fast ship" speed="13.89" length="17.92" shape="1210.41,475.00 1207.30,477.80 1204.22,481.42 1201.49,485.33 1199.44,489.01"/>
    </edge>
    <edge id=":1183426228_6" function="internal">
        <lane id=":1183426228_6_0" index="0" disallow="tram rail_urban rail rail_electric rail_fast ship" speed="7.50" length="15.89" shape="1210.41,475.00 1206.34,477.20 1203.03,477.25 1200.47,475.13 1198.68,470.86"/>
    </edge>
    <edge id=":1183426228_7" function="internal">
        <lane id=":1183426228_7_0" index="0" disallow="tram rail_urban rail rail_electric rail_fast ship" speed="3.65" length="4.67" shape="1210.41,475.00 1208.97,475.07 1208.17,474.66 1208.02,473.78 1208.51,472.42"/>
    </edge>
    <edge id=":1183426228_8" function="internal">
        <lane id=":1183426228_8_0" index="0" disallow="tram rail_urban rail rail_electric rail_fast ship" speed="5.84" length="9.13" shape="1201.78,470.05 1202.81,472.50 1204.27,473.71 1206.17,473.69 1208.51,472.42"/>
    </edge>
    <edge id=":1183426228_9" function="internal">
        <lane id=":1183426228_9_0" index="0" disallow="tram rail_urban rail rail_electric rail_fast ship" speed="13.89" length="18.71" shape="1201.78,470.05 1203.07,474.18 1204.85,478.87 1206.82,483.50 1208.70,487.40"/>
    </edge>
    <edge id=":1183426228_10" function="internal">
        <lane id=":1183426228_10_0" index="0" disallow="tram rail_urban rail rail_electric rail_fast ship" speed="13.89" length="3.64" shape="1201.78,470.05 1202.17,473.66"/>
    </edge>
    <edge id=":1183426228_11" function="internal">
        <lane id=":1183426228_11_0" index="0" disallow="tram rail_urban rail rail_electric rail_fast ship" speed="3.65" length="1.44" shape="1201.78,470.05 1201.31,471.41"/>
    </edge>
    <edge id=":1183426228_18" function="internal">
        <lane id=":1183426228_18_0" index="0" disallow="tram rail_urban rail rail_electric rail_fast ship" speed="13.89" length="15.70" shape="1202.17,473.66 1202.25,474.41 1201.89,479.65 1200.89,484.82 1199.44,489.01"/>
    </edge>
    <edge id=":1183426228_19" function="internal">
        <lane id=":1183426228_19_0" index="0" disallow="tram rail_urban rail rail_electric rail_fast ship" speed="3.65" length="3.23" shape="1201.31,471.41 1200.64,472.00 1199.76,471.82 1198.68,470.86"/>
    </edge>
    <edge id=":1183426228_12" function="internal">
        <lane id=":1183426228_12_0" index="0" disallow="tram rail_urban rail rail_electric rail_fast ship" speed="13.89" length="17.17" shape="1196.55,487.65 1197.96,483.80 1198.89,479.37 1199.19,474.89 1198.68,470.86"/>
    </edge>
    <edge id=":1183426228_13" function="internal">
        <lane id=":1183426228_13_0" index="0" disallow="tram rail_urban rail rail_electric rail_fast ship" speed="13.89" length="19.48" shape="1196.55,487.65 1198.75,483.78 1201.82,479.45 1205.25,475.42 1208.51,472.42"/>
    </edge>
    <edge id=":1183426228_14" function="internal">
        <lane id=":1183426228_14_0" index="0" disallow="tram rail_urban rail rail_electric rail_fast ship" speed="7.38" length="17.82" shape="1196.55,487.65 1199.49,482.99 1202.50,481.40 1205.57,482.87 1208.70,487.40"/>
    </edge>
    <edge id=":1183426228_15" function="internal">
        <lane id=":1183426228_15_0" index="0" disallow="tram rail_urban rail rail_electric rail_fast ship" speed="3.65" length="4.67" shape="1196.55,487.65 1197.79,486.90 1198.68,486.88 1199.23,487.58 1199.44,489.01"/>
    </edge>
    <edge id=":1183426239_0" function="internal">
        <lane id=":1183426239_0_0" index="0" disallow="tram rail_urban rail rail_electric rail_fast ship" speed="7.16" length="10.00" shape="774.65,1092.45 772.54,1091.03 770.33,1090.58 768.03,1091.12 765.63,1092.64"/>
    </edge>
    <edge id=":1183426239_1" function="internal">
        <lane id=":1183426239_1_0" index="0" disallow="tram rail_urban rail rail_electric rail_fast ship" speed="22.22" length="14.72" shape="774.65,1092.45 763.78,1082.53"/>
    </edge>
    <edge id=":1183426239_2" function="internal">
        <lane id=":1183426239_2_0" index="0" disallow="tram rail_urban rail rail_electric rail_fast ship" speed="7.28" length="11.77" shape="774.65,1092.45 772.06,1089.56 770.78,1086.92 770.80,1084.51 772.14,1082.34"/>
    </edge>
    <edge id=":1183426239_3" function="internal">
        <lane id=":1183426239_3_0" index="0" disallow="tram rail_urban rail rail_electric rail_fast ship" speed="13.89" length="11.95" shape="774.44,1084.57 772.14,1086.90 770.18,1088.76 768.15,1090.55 765.63,1092.64"/>
    </edge>
    <edge id=":1183426239_4" function="internal">
        <lane id=":1183426239_4_0" index="0" disallow="tram rail_urban rail rail_electric rail_fast ship" speed="7.53" length="12.09" shape="774.44,1084.57 772.30,1085.95 769.82,1086.07 766.98,1084.93 763.78,1082.53"/>
    </edge>
    <edge id=":1183426239_5" function="internal">
        <lane id=":1183426239_5_0" index="0" disallow="tram rail_urban rail rail_electric rail_fast ship" speed="3.65" length="4.67" shape="774.44,1084.57 773.03,1084.87 772.17,1084.60 771.88,1083.76 772.14,1082.34"/>
    </edge>
    <edge id=":1183426239_6" function="internal">
        <lane id=":1183426239_6_0" index="0" disallow="tram rail_urban rail rail_electric rail_fast ship" speed="6.20" length="9.05" shape="763.60,1090.16 765.31,1088.29 765.91,1086.40 765.40,1084.47 763.78,1082.53"/>
    </edge>
    <edge id=":1183426239_7" function="internal">
        <lane id=":1183426239_7_0" index="0" disallow="tram rail_urban rail rail_electric rail_fast ship" speed="13.89" length="11.58" shape="763.60,1090.16 766.08,1088.11 768.02,1086.41 769.88,1084.63 772.14,1082.34"/>
    </edge>
    <edge id=":1183426239_8" function="internal">
        <lane id=":1183426239_8_0" index="0" disallow="tram rail_urban rail rail_electric rail_fast ship" speed="3.65" length="4.67" shape="763.60,1090.16 765.04,1090.02 765.86,1090.39 766.05,1091.26 765.63,1092.64"/>
    </edge>
    <edge id=":1183426488_0" function="internal">
        <lane id=":1183426488_0_0" index="0" disallow="tram rail_urban rail rail_electric rail_fast ship" speed="7.41" length="10.04" shape="789.07,795.82 786.19,795.30 783.77,795.59 781.81,796.69 780.30,798.59"/>
    </edge>
    <edge id=":1183426488_1" function="internal">
        <lane id=":1183426488_1_0" index="0" disallow="tram rail_urban rail rail_electric rail_fast ship" speed="3.65" length="4.67" shape="789.07,795.82 788.15,794.71 787.99,793.83 788.60,793.17 789.98,792.75"/>
    </edge>
    <edge id=":1183426488_2" function="internal">
        <lane id=":1183426488_2_0" index="0" disallow="tram rail_urban rail rail_electric rail_fast ship" speed="6.19" length="9.05" shape="786.90,785.78 786.13,788.20 786.39,790.17 787.67,791.68 789.98,792.75"/>
    </edge>
    <edge id=":1183426488_3" function="internal">
        <lane id=":1183426488_3_0" index="0" disallow="tram rail_urban rail rail_electric rail_fast ship" speed="22.22" length="14.32" shape="786.90,785.78 780.30,798.59"/>
        <lane id=":1183426488_3_1" index="1" disallow="tram rail_urban rail rail_electric rail_fast ship" speed="22.22" length="14.32" shape="784.01,784.39 777.50,797.04"/>
    </edge>
    <edge id=":1183426510_0" function="internal">
        <lane id=":1183426510_0_0" index="0" disallow="tram rail_urban rail rail_electric rail_fast ship" speed="3.65" length="4.67" shape="1537.12,888.43 1538.35,889.19 1538.78,889.97 1538.41,890.79 1537.24,891.63"/>
    </edge>
    <edge id=":1183426529_0" function="internal">
        <lane id=":1183426529_0_0" index="0" disallow="tram rail_urban rail rail_electric rail_fast ship" speed="3.65" length="4.67" shape="606.77,1193.38 605.36,1193.10 604.68,1192.51 604.74,1191.62 605.55,1190.42"/>
    </edge>
    <edge id=":2463956928_0" function="internal">
        <lane id=":2463956928_0_0" index="0" disallow="tram rail_urban rail rail_electric rail_fast ship" speed="3.65" length="4.67" shape="663.50,1.52 662.61,0.39 662.48,-0.50 663.11,-1.13 664.50,-1.52"/>
    </edge>
    <edge id=":2463957121_0" function="internal">
        <lane id=":2463957121_0_0" index="0" allow="bicycle" speed="6.56" length="4.62" width="1.00" shape="824.83,41.22 823.93,41.26 822.96,41.62 821.93,42.28 820.84,43.26"/>
    </edge>
    <edge id=":2463957121_1" function="internal">
        <lane id=":2463957121_1_0" index="0" disallow="tram rail_urban rail rail_electric rail_fast ship" speed="13.89" length="5.45" shape="824.97,40.13 819.58,39.34"/>
    </edge>
    <edge id=":2463957121_2" function="internal">
        <lane id=":2463957121_2_0" index="0" disallow="tram rail_urban rail rail_electric rail_fast ship" speed="13.89" length="5.40" shape="820.04,36.18 825.38,36.95"/>
    </edge>
    <edge id=":2463957121_3" function="internal">
        <lane id=":2463957121_3_0" index="0" allow="bicycle" speed="5.40" length="4.11" width="1.00" shape="819.88,37.26 822.20,37.97 823.14,39.21 823.10,39.34"/>
    </edge>
    <edge id=":2463957121_7" function="internal">
        <lane id=":2463957121_7_0" index="0" allow="bicycle" speed="5.40" length="4.62" width="1.00" shape="823.10,39.34 822.68,40.97 820.84,43.26"/>
    </edge>
    <edge id=":2463957121_4" function="internal">
        <lane id=":2463957121_4_0" index="0" allow="bicycle" speed="3.26" length="3.26" width="1.00" shape="820.13,42.56 820.74,41.76 820.83,41.14 820.39,40.70 819.42,40.43"/>
    </edge>
    <edge id=":2463957121_5" function="internal">
        <lane id=":2463957121_5_0" index="0" allow="bicycle" speed="8.65" length="8.78" width="1.00" shape="820.13,42.56 822.90,39.68 824.73,37.61 825.60,36.34 825.53,35.86"/>
    </edge>
    <edge id=":2463957121_6" function="internal">
        <lane id=":2463957121_6_0" index="0" allow="bicycle" speed="2.04" length="1.46" width="1.00" shape="820.13,42.56 820.57,42.47 820.84,42.56 820.93,42.82 820.84,43.26"/>
    </edge>
    <edge id=":2463957191_0" function="internal">
        <lane id=":2463957191_0_0" index="0" allow="bicycle" speed="5.56" length="4.81" width="1.00" shape="803.62,65.48 802.07,65.52 800.80,65.72 799.80,66.09 799.07,66.64"/>
    </edge>
    <edge id=":2463957191_1" function="internal">
        <lane id=":2463957191_1_0" index="0" allow="bicycle" speed="4.23" length="5.98" width="1.00" shape="803.62,65.48 801.78,65.20 800.89,64.49 800.97,63.37 802.01,61.82"/>
    </edge>
    <edge id=":2463957191_2" function="internal">
        <lane id=":2463957191_2_0" index="0" allow="bicycle" speed="2.04" length="1.46" width="1.00" shape="803.62,65.48 803.25,65.22 803.13,64.97 803.27,64.72 803.65,64.48"/>
    </edge>
    <edge id=":2463957191_3" function="internal">
        <lane id=":2463957191_3_0" index="0" allow="bicycle" speed="3.23" length="3.28" width="1.00" shape="802.76,62.47 802.20,63.32 802.15,63.94 802.64,64.33 803.65,64.48"/>
    </edge>
    <edge id=":2463957191_4" function="internal">
        <lane id=":2463957191_4_0" index="0" allow="bicycle" speed="5.56" length="5.57" width="1.00" shape="802.76,62.47 799.07,66.64"/>
    </edge>
    <edge id=":2463957191_5" function="internal">
        <lane id=":2463957191_5_0" index="0" allow="bicycle" speed="2.04" length="1.46" width="1.00" shape="802.76,62.47 802.33,62.59 802.06,62.53 801.95,62.27 802.01,61.82"/>
    </edge>
    <edge id=":2463957191_6" function="internal">
        <lane id=":2463957191_6_0" index="0" allow="bicycle" speed="5.56" length="5.53" width="1.00" shape="798.34,65.96 802.01,61.82"/>
    </edge>
    <edge id=":2463957191_7" function="internal">
        <lane id=":2463957191_7_0" index="0" allow="bicycle" speed="5.56" length="5.66" width="1.00" shape="798.34,65.96 799.23,65.27 800.41,64.79 801.88,64.53 803.65,64.48"/>
    </edge>
    <edge id=":2463957191_8" function="internal">
        <lane id=":2463957191_8_0" index="0" allow="bicycle" speed="2.04" length="1.46" width="1.00" shape="798.34,65.96 798.78,65.85 799.05,65.93 799.15,66.20 799.07,66.64"/>
    </edge>
    <edge id=":2463957477_0" function="internal">
        <lane id=":2463957477_0_0" index="0" allow="bicycle" speed="2.04" length="1.46" width="1.00" shape="1143.15,162.58 1143.60,162.57 1143.84,162.71 1143.88,162.98 1143.71,163.40"/>
    </edge>
    <edge id=":2463957761_0" function="internal">
        <lane id=":2463957761_0_0" index="0" allow="bicycle" speed="2.04" length="1.46" width="1.00" shape="1030.26,203.59 1030.10,203.16 1030.14,202.89 1030.39,202.76 1030.84,202.77"/>
    </edge>
    <edge id=":2463957811_0" function="internal">
        <lane id=":2463957811_0_0" index="0" disallow="tram rail_urban rail rail_electric rail_fast ship" speed="13.89" length="6.19" shape="1006.80,200.87 1004.68,206.69"/>
    </edge>
    <edge id=":2463957811_1" function="internal">
        <lane id=":2463957811_1_0" index="0" allow="bicycle" speed="5.55" length="5.13" width="1.00" shape="1005.77,200.50 1004.30,203.45 1002.83,204.30 1002.73,204.21"/>
    </edge>
    <edge id=":2463957811_7" function="internal">
        <lane id=":2463957811_7_0" index="0" allow="bicycle" speed="5.55" length="5.47" width="1.00" shape="1002.73,204.21 1001.36,203.05 999.88,199.69"/>
    </edge>
    <edge id=":2463957811_2" function="internal">
        <lane id=":2463957811_2_0" index="0" allow="bicycle" speed="3.17" length="3.48" width="1.00" shape="1000.83,199.37 1001.30,200.41 1001.78,200.77 1002.26,200.43 1002.76,199.40"/>
    </edge>
    <edge id=":2463957811_3" function="internal">
        <lane id=":2463957811_3_0" index="0" allow="bicycle" speed="9.72" length="9.11" width="1.00" shape="1000.83,199.37 1005.71,207.07"/>
    </edge>
    <edge id=":2463957811_4" function="internal">
        <lane id=":2463957811_4_0" index="0" allow="bicycle" speed="2.04" length="1.46" width="1.00" shape="1000.83,199.37 1000.71,199.81 1000.51,200.01 1000.23,199.97 999.88,199.69"/>
    </edge>
    <edge id=":2463957811_5" function="internal">
        <lane id=":2463957811_5_0" index="0" allow="bicycle" speed="9.04" length="5.78" width="1.00" shape="1000.63,205.22 1001.04,203.62 1000.95,202.46 1000.51,201.30 999.88,199.69"/>
    </edge>
    <edge id=":2463957811_6" function="internal">
        <lane id=":2463957811_6_0" index="0" disallow="tram rail_urban rail rail_electric rail_fast ship" speed="13.89" length="6.20" shape="1001.67,205.60 1003.80,199.78"/>
    </edge>
    <edge id=":2463957943_0" function="internal">
        <lane id=":2463957943_0_0" index="0" disallow="tram rail_urban rail rail_electric rail_fast ship" speed="13.89" length="4.84" shape="997.31,227.14 995.79,231.74"/>
    </edge>
    <edge id=":2463957943_1" function="internal">
        <lane id=":2463957943_1_0" index="0" allow="bicycle" speed="6.11" length="2.58" width="1.00" shape="996.27,226.77 995.61,227.65 994.39,228.18 994.24,228.19"/>
    </edge>
    <edge id=":2463957943_7" function="internal">
        <lane id=":2463957943_7_0" index="0" allow="bicycle" speed="6.11" length="4.02" width="1.00" shape="994.24,228.19 992.60,228.35 990.24,228.17"/>
    </edge>
    <edge id=":2463957943_2" function="internal">
        <lane id=":2463957943_2_0" index="0" allow="bicycle" speed="4.37" length="3.55" width="1.00" shape="990.38,227.18 991.40,227.20 992.22,226.96 992.84,226.46 993.26,225.69"/>
    </edge>
    <edge id=":2463957943_3" function="internal">
        <lane id=":2463957943_3_0" index="0" allow="bicycle" speed="5.99" length="9.26" width="1.00" shape="990.38,227.18 993.66,227.88 995.83,228.92 996.89,230.32 996.84,232.07"/>
    </edge>
    <edge id=":2463957943_4" function="internal">
        <lane id=":2463957943_4_0" index="0" allow="bicycle" speed="2.04" length="1.46" width="1.00" shape="990.38,227.18 990.71,227.48 990.80,227.74 990.65,227.97 990.24,228.17"/>
    </edge>
    <edge id=":2463957943_5" function="internal">
        <lane id=":2463957943_5_0" index="0" allow="bicycle" speed="4.05" length="3.21" width="1.00" shape="991.69,230.45 991.83,229.56 991.64,228.88 991.11,228.42 990.24,228.17"/>
    </edge>
    <edge id=":2463957943_6" function="internal">
        <lane id=":2463957943_6_0" index="0" disallow="tram rail_urban rail rail_electric rail_fast ship" speed="13.89" length="4.97" shape="992.74,230.78 994.29,226.06"/>
    </edge>
    <edge id=":2463958095_0" function="internal">